343

H		0.000000 0.000000 0.000000
H		0.000000 0.000000 0.740000
H		0.000000 0.000000 1.480000
H		0.000000 0.000000 2.220000
H		0.000000 0.000000 2.960000
H		0.000000 0.000000 3.700000
H		0.000000 0.000000 4.440000
H		0.000000 0.740000 0.000000
H		0.000000 0.740000 0.740000
H		0.000000 0.740000 1.480000
H		0.000000 0.740000 2.220000
H		0.000000 0.740000 2.960000
H		0.000000 0.740000 3.700000
H		0.000000 0.740000 4.440000
H		0.000000 1.480000 0.000000
H		0.000000 1.480000 0.740000
H		0.000000 1.480000 1.480000
H		0.000000 1.480000 2.220000
H		0.000000 1.480000 2.960000
H		0.000000 1.480000 3.700000
H		0.000000 1.480000 4.440000
H		0.000000 2.220000 0.000000
H		0.000000 2.220000 0.740000
H		0.000000 2.220000 1.480000
H		0.000000 2.220000 2.220000
H		0.000000 2.220000 2.960000
H		0.000000 2.220000 3.700000
H		0.000000 2.220000 4.440000
H		0.000000 2.960000 0.000000
H		0.000000 2.960000 0.740000
H		0.000000 2.960000 1.480000
H		0.000000 2.960000 2.220000
H		0.000000 2.960000 2.960000
H		0.000000 2.960000 3.700000
H		0.000000 2.960000 4.440000
H		0.000000 3.700000 0.000000
H		0.000000 3.700000 0.740000
H		0.000000 3.700000 1.480000
H		0.000000 3.700000 2.220000
H		0.000000 3.700000 2.960000
H		0.000000 3.700000 3.700000
H		0.000000 3.700000 4.440000
H		0.000000 4.440000 0.000000
H		0.000000 4.440000 0.740000
H		0.000000 4.440000 1.480000
H		0.000000 4.440000 2.220000
H		0.000000 4.440000 2.960000
H		0.000000 4.440000 3.700000
H		0.000000 4.440000 4.440000
H		0.740000 0.000000 0.000000
H		0.740000 0.000000 0.740000
H		0.740000 0.000000 1.480000
H		0.740000 0.000000 2.220000
H		0.740000 0.000000 2.960000
H		0.740000 0.000000 3.700000
H		0.740000 0.000000 4.440000
H		0.740000 0.740000 0.000000
H		0.740000 0.740000 0.740000
H		0.740000 0.740000 1.480000
H		0.740000 0.740000 2.220000
H		0.740000 0.740000 2.960000
H		0.740000 0.740000 3.700000
H		0.740000 0.740000 4.440000
H		0.740000 1.480000 0.000000
H		0.740000 1.480000 0.740000
H		0.740000 1.480000 1.480000
H		0.740000 1.480000 2.220000
H		0.740000 1.480000 2.960000
H		0.740000 1.480000 3.700000
H		0.740000 1.480000 4.440000
H		0.740000 2.220000 0.000000
H		0.740000 2.220000 0.740000
H		0.740000 2.220000 1.480000
H		0.740000 2.220000 2.220000
H		0.740000 2.220000 2.960000
H		0.740000 2.220000 3.700000
H		0.740000 2.220000 4.440000
H		0.740000 2.960000 0.000000
H		0.740000 2.960000 0.740000
H		0.740000 2.960000 1.480000
H		0.740000 2.960000 2.220000
H		0.740000 2.960000 2.960000
H		0.740000 2.960000 3.700000
H		0.740000 2.960000 4.440000
H		0.740000 3.700000 0.000000
H		0.740000 3.700000 0.740000
H		0.740000 3.700000 1.480000
H		0.740000 3.700000 2.220000
H		0.740000 3.700000 2.960000
H		0.740000 3.700000 3.700000
H		0.740000 3.700000 4.440000
H		0.740000 4.440000 0.000000
H		0.740000 4.440000 0.740000
H		0.740000 4.440000 1.480000
H		0.740000 4.440000 2.220000
H		0.740000 4.440000 2.960000
H		0.740000 4.440000 3.700000
H		0.740000 4.440000 4.440000
H		1.480000 0.000000 0.000000
H		1.480000 0.000000 0.740000
H		1.480000 0.000000 1.480000
H		1.480000 0.000000 2.220000
H		1.480000 0.000000 2.960000
H		1.480000 0.000000 3.700000
H		1.480000 0.000000 4.440000
H		1.480000 0.740000 0.000000
H		1.480000 0.740000 0.740000
H		1.480000 0.740000 1.480000
H		1.480000 0.740000 2.220000
H		1.480000 0.740000 2.960000
H		1.480000 0.740000 3.700000
H		1.480000 0.740000 4.440000
H		1.480000 1.480000 0.000000
H		1.480000 1.480000 0.740000
H		1.480000 1.480000 1.480000
H		1.480000 1.480000 2.220000
H		1.480000 1.480000 2.960000
H		1.480000 1.480000 3.700000
H		1.480000 1.480000 4.440000
H		1.480000 2.220000 0.000000
H		1.480000 2.220000 0.740000
H		1.480000 2.220000 1.480000
H		1.480000 2.220000 2.220000
H		1.480000 2.220000 2.960000
H		1.480000 2.220000 3.700000
H		1.480000 2.220000 4.440000
H		1.480000 2.960000 0.000000
H		1.480000 2.960000 0.740000
H		1.480000 2.960000 1.480000
H		1.480000 2.960000 2.220000
H		1.480000 2.960000 2.960000
H		1.480000 2.960000 3.700000
H		1.480000 2.960000 4.440000
H		1.480000 3.700000 0.000000
H		1.480000 3.700000 0.740000
H		1.480000 3.700000 1.480000
H		1.480000 3.700000 2.220000
H		1.480000 3.700000 2.960000
H		1.480000 3.700000 3.700000
H		1.480000 3.700000 4.440000
H		1.480000 4.440000 0.000000
H		1.480000 4.440000 0.740000
H		1.480000 4.440000 1.480000
H		1.480000 4.440000 2.220000
H		1.480000 4.440000 2.960000
H		1.480000 4.440000 3.700000
H		1.480000 4.440000 4.440000
H		2.220000 0.000000 0.000000
H		2.220000 0.000000 0.740000
H		2.220000 0.000000 1.480000
H		2.220000 0.000000 2.220000
H		2.220000 0.000000 2.960000
H		2.220000 0.000000 3.700000
H		2.220000 0.000000 4.440000
H		2.220000 0.740000 0.000000
H		2.220000 0.740000 0.740000
H		2.220000 0.740000 1.480000
H		2.220000 0.740000 2.220000
H		2.220000 0.740000 2.960000
H		2.220000 0.740000 3.700000
H		2.220000 0.740000 4.440000
H		2.220000 1.480000 0.000000
H		2.220000 1.480000 0.740000
H		2.220000 1.480000 1.480000
H		2.220000 1.480000 2.220000
H		2.220000 1.480000 2.960000
H		2.220000 1.480000 3.700000
H		2.220000 1.480000 4.440000
H		2.220000 2.220000 0.000000
H		2.220000 2.220000 0.740000
H		2.220000 2.220000 1.480000
H		2.220000 2.220000 2.220000
H		2.220000 2.220000 2.960000
H		2.220000 2.220000 3.700000
H		2.220000 2.220000 4.440000
H		2.220000 2.960000 0.000000
H		2.220000 2.960000 0.740000
H		2.220000 2.960000 1.480000
H		2.220000 2.960000 2.220000
H		2.220000 2.960000 2.960000
H		2.220000 2.960000 3.700000
H		2.220000 2.960000 4.440000
H		2.220000 3.700000 0.000000
H		2.220000 3.700000 0.740000
H		2.220000 3.700000 1.480000
H		2.220000 3.700000 2.220000
H		2.220000 3.700000 2.960000
H		2.220000 3.700000 3.700000
H		2.220000 3.700000 4.440000
H		2.220000 4.440000 0.000000
H		2.220000 4.440000 0.740000
H		2.220000 4.440000 1.480000
H		2.220000 4.440000 2.220000
H		2.220000 4.440000 2.960000
H		2.220000 4.440000 3.700000
H		2.220000 4.440000 4.440000
H		2.960000 0.000000 0.000000
H		2.960000 0.000000 0.740000
H		2.960000 0.000000 1.480000
H		2.960000 0.000000 2.220000
H		2.960000 0.000000 2.960000
H		2.960000 0.000000 3.700000
H		2.960000 0.000000 4.440000
H		2.960000 0.740000 0.000000
H		2.960000 0.740000 0.740000
H		2.960000 0.740000 1.480000
H		2.960000 0.740000 2.220000
H		2.960000 0.740000 2.960000
H		2.960000 0.740000 3.700000
H		2.960000 0.740000 4.440000
H		2.960000 1.480000 0.000000
H		2.960000 1.480000 0.740000
H		2.960000 1.480000 1.480000
H		2.960000 1.480000 2.220000
H		2.960000 1.480000 2.960000
H		2.960000 1.480000 3.700000
H		2.960000 1.480000 4.440000
H		2.960000 2.220000 0.000000
H		2.960000 2.220000 0.740000
H		2.960000 2.220000 1.480000
H		2.960000 2.220000 2.220000
H		2.960000 2.220000 2.960000
H		2.960000 2.220000 3.700000
H		2.960000 2.220000 4.440000
H		2.960000 2.960000 0.000000
H		2.960000 2.960000 0.740000
H		2.960000 2.960000 1.480000
H		2.960000 2.960000 2.220000
H		2.960000 2.960000 2.960000
H		2.960000 2.960000 3.700000
H		2.960000 2.960000 4.440000
H		2.960000 3.700000 0.000000
H		2.960000 3.700000 0.740000
H		2.960000 3.700000 1.480000
H		2.960000 3.700000 2.220000
H		2.960000 3.700000 2.960000
H		2.960000 3.700000 3.700000
H		2.960000 3.700000 4.440000
H		2.960000 4.440000 0.000000
H		2.960000 4.440000 0.740000
H		2.960000 4.440000 1.480000
H		2.960000 4.440000 2.220000
H		2.960000 4.440000 2.960000
H		2.960000 4.440000 3.700000
H		2.960000 4.440000 4.440000
H		3.700000 0.000000 0.000000
H		3.700000 0.000000 0.740000
H		3.700000 0.000000 1.480000
H		3.700000 0.000000 2.220000
H		3.700000 0.000000 2.960000
H		3.700000 0.000000 3.700000
H		3.700000 0.000000 4.440000
H		3.700000 0.740000 0.000000
H		3.700000 0.740000 0.740000
H		3.700000 0.740000 1.480000
H		3.700000 0.740000 2.220000
H		3.700000 0.740000 2.960000
H		3.700000 0.740000 3.700000
H		3.700000 0.740000 4.440000
H		3.700000 1.480000 0.000000
H		3.700000 1.480000 0.740000
H		3.700000 1.480000 1.480000
H		3.700000 1.480000 2.220000
H		3.700000 1.480000 2.960000
H		3.700000 1.480000 3.700000
H		3.700000 1.480000 4.440000
H		3.700000 2.220000 0.000000
H		3.700000 2.220000 0.740000
H		3.700000 2.220000 1.480000
H		3.700000 2.220000 2.220000
H		3.700000 2.220000 2.960000
H		3.700000 2.220000 3.700000
H		3.700000 2.220000 4.440000
H		3.700000 2.960000 0.000000
H		3.700000 2.960000 0.740000
H		3.700000 2.960000 1.480000
H		3.700000 2.960000 2.220000
H		3.700000 2.960000 2.960000
H		3.700000 2.960000 3.700000
H		3.700000 2.960000 4.440000
H		3.700000 3.700000 0.000000
H		3.700000 3.700000 0.740000
H		3.700000 3.700000 1.480000
H		3.700000 3.700000 2.220000
H		3.700000 3.700000 2.960000
H		3.700000 3.700000 3.700000
H		3.700000 3.700000 4.440000
H		3.700000 4.440000 0.000000
H		3.700000 4.440000 0.740000
H		3.700000 4.440000 1.480000
H		3.700000 4.440000 2.220000
H		3.700000 4.440000 2.960000
H		3.700000 4.440000 3.700000
H		3.700000 4.440000 4.440000
H		4.440000 0.000000 0.000000
H		4.440000 0.000000 0.740000
H		4.440000 0.000000 1.480000
H		4.440000 0.000000 2.220000
H		4.440000 0.000000 2.960000
H		4.440000 0.000000 3.700000
H		4.440000 0.000000 4.440000
H		4.440000 0.740000 0.000000
H		4.440000 0.740000 0.740000
H		4.440000 0.740000 1.480000
H		4.440000 0.740000 2.220000
H		4.440000 0.740000 2.960000
H		4.440000 0.740000 3.700000
H		4.440000 0.740000 4.440000
H		4.440000 1.480000 0.000000
H		4.440000 1.480000 0.740000
H		4.440000 1.480000 1.480000
H		4.440000 1.480000 2.220000
H		4.440000 1.480000 2.960000
H		4.440000 1.480000 3.700000
H		4.440000 1.480000 4.440000
H		4.440000 2.220000 0.000000
H		4.440000 2.220000 0.740000
H		4.440000 2.220000 1.480000
H		4.440000 2.220000 2.220000
H		4.440000 2.220000 2.960000
H		4.440000 2.220000 3.700000
H		4.440000 2.220000 4.440000
H		4.440000 2.960000 0.000000
H		4.440000 2.960000 0.740000
H		4.440000 2.960000 1.480000
H		4.440000 2.960000 2.220000
H		4.440000 2.960000 2.960000
H		4.440000 2.960000 3.700000
H		4.440000 2.960000 4.440000
H		4.440000 3.700000 0.000000
H		4.440000 3.700000 0.740000
H		4.440000 3.700000 1.480000
H		4.440000 3.700000 2.220000
H		4.440000 3.700000 2.960000
H		4.440000 3.700000 3.700000
H		4.440000 3.700000 4.440000
H		4.440000 4.440000 0.000000
H		4.440000 4.440000 0.740000
H		4.440000 4.440000 1.480000
H		4.440000 4.440000 2.220000
H		4.440000 4.440000 2.960000
H		4.440000 4.440000 3.700000
H		4.440000 4.440000 4.440000
